Version 4
SHEET 1 3024 680
WIRE 1792 -1152 720 -1152
WIRE 1920 -1152 1792 -1152
WIRE 2240 -1152 2016 -1152
WIRE 2400 -1152 2240 -1152
WIRE 2736 -1152 2400 -1152
WIRE 2912 -1152 2736 -1152
WIRE 1360 -1104 1264 -1104
WIRE 1472 -1104 1360 -1104
WIRE 1264 -1072 1264 -1104
WIRE 1360 -1040 1360 -1104
WIRE 2736 -992 2736 -1152
WIRE 2912 -976 2912 -1152
WIRE 1264 -960 1264 -992
WIRE 1360 -960 1264 -960
WIRE 1792 -944 1792 -1072
WIRE 1968 -944 1968 -1088
WIRE 1968 -944 1792 -944
WIRE 1360 -912 1360 -960
WIRE 1968 -880 1968 -944
WIRE 1472 -864 1472 -1104
WIRE 1152 -848 1008 -848
WIRE 1296 -848 1232 -848
WIRE 1440 -848 1296 -848
WIRE 1728 -832 1504 -832
WIRE 1856 -832 1808 -832
WIRE 1904 -832 1856 -832
WIRE 1920 -832 1904 -832
WIRE 1008 -816 1008 -848
WIRE 1440 -816 1376 -816
WIRE 1984 -816 1968 -816
WIRE 2400 -816 2400 -1072
WIRE 2400 -816 2240 -816
WIRE 1856 -800 1856 -832
WIRE 1968 -784 1968 -816
WIRE 1968 -752 1968 -784
WIRE 2400 -752 2400 -816
WIRE 1008 -672 1008 -736
WIRE 1200 -672 1008 -672
WIRE 1312 -672 1200 -672
WIRE 1856 -672 1856 -720
WIRE 1856 -672 1312 -672
WIRE 1968 -672 1856 -672
WIRE 2144 -672 1968 -672
WIRE 2400 -672 2144 -672
WIRE 2736 -672 2736 -928
WIRE 2736 -672 2400 -672
WIRE 2912 -672 2912 -896
WIRE 2912 -672 2736 -672
WIRE 3008 -672 2912 -672
WIRE 1376 -624 1376 -816
WIRE 2240 -624 2240 -816
WIRE 2240 -624 1376 -624
WIRE 1200 -592 1200 -672
WIRE 1312 -576 1312 -672
WIRE 1200 -464 1200 -512
WIRE 1312 -464 1312 -496
WIRE 1312 -464 1200 -464
WIRE 1312 -448 1312 -464
WIRE 1472 -448 1472 -800
WIRE 1472 -448 1312 -448
WIRE 304 -192 48 -192
WIRE 416 -192 304 -192
WIRE 464 -192 416 -192
WIRE 720 -192 720 -1152
WIRE 720 -192 464 -192
WIRE 2160 -192 720 -192
WIRE 2288 -192 2160 -192
WIRE 2416 -192 2288 -192
WIRE 2672 -192 2512 -192
WIRE 2768 -192 2672 -192
WIRE 2768 -144 2768 -192
WIRE 2160 -128 2160 -192
WIRE 2288 -128 2288 -192
WIRE 2416 -128 2416 -192
WIRE 2512 -128 2512 -192
WIRE 304 -64 304 -112
WIRE 464 -64 464 -192
WIRE 2464 -48 2464 -64
WIRE 2464 -48 2288 -48
WIRE 304 -16 304 -64
WIRE 304 -16 240 -16
WIRE 400 -16 304 -16
WIRE 2464 -16 2464 -48
WIRE 2768 32 2768 -64
WIRE 464 112 464 32
WIRE 464 112 368 112
WIRE 48 128 48 -192
WIRE 2464 144 2464 64
WIRE 240 160 240 -16
WIRE 2768 192 2768 112
WIRE 2768 192 2528 192
WIRE 368 208 368 192
WIRE 368 208 304 208
WIRE 464 208 464 112
WIRE 2768 224 2768 192
WIRE 240 288 240 256
WIRE 368 288 240 288
WIRE 464 288 368 288
WIRE 464 320 464 288
WIRE 656 320 464 320
WIRE 2160 320 2160 -48
WIRE 2464 320 2464 240
WIRE 2464 320 2160 320
WIRE 2768 336 2768 304
WIRE 464 368 464 320
WIRE 2464 368 2464 320
WIRE 656 416 656 320
WIRE 464 432 464 368
WIRE 48 640 48 208
WIRE 208 640 48 640
WIRE 448 640 208 640
WIRE 464 640 464 496
WIRE 464 640 448 640
WIRE 656 640 656 496
WIRE 2464 640 2464 432
WIRE 2464 640 656 640
WIRE 2768 640 2768 416
WIRE 2768 640 2464 640
WIRE 3008 640 3008 -672
WIRE 3008 640 2768 640
WIRE 448 656 448 640
WIRE 656 656 656 640
WIRE 656 656 448 656
FLAG 208 640 0
FLAG 416 -192 vp
FLAG 464 368 vcap
FLAG 304 -64 vtr
FLAG 2672 -192 vreg
FLAG 2144 -672 0
FLAG 1360 -912 0
FLAG 2240 -1152 vop
FLAG 1296 -848 vcontrol
SYMBOL voltage 48 112 R0
WINDOW 123 0 0 Left 0
WINDOW 39 24 124 Left 2
SYMATTR InstName V1
SYMATTR Value 200
SYMATTR SpiceLine Rser=10
SYMBOL res 448 192 R0
SYMATTR InstName R2
SYMATTR Value 100
SYMBOL npn 304 160 M0
SYMATTR InstName Q2
SYMATTR Value MPSA42/INF
SYMBOL res 288 -208 R0
SYMATTR InstName R3
SYMATTR Value 220000
SYMBOL Contrib\\Toshiba\\bjt\\TTD1409B 400 -64 R0
SYMATTR InstName U1
SYMBOL cap 448 432 R0
SYMATTR InstName C1
SYMATTR Value 100µf
SYMATTR SpiceLine V=300
SYMBOL res 640 400 R0
SYMATTR InstName R5
SYMATTR Value 1
SYMBOL res 352 96 R0
SYMATTR InstName R1
SYMATTR Value 10000
SYMBOL res 352 192 R0
SYMATTR InstName R4
SYMATTR Value 2000
SYMBOL Contrib\\Toshiba\\bjt\\TTD1409B 2416 -64 R270
SYMATTR InstName U2
SYMBOL npn 2528 144 M0
SYMATTR InstName Q4
SYMATTR Value MPSA42/INF
SYMBOL res 2448 -32 R0
SYMATTR InstName R11
SYMATTR Value 1
SYMBOL res 2272 -144 R0
SYMATTR InstName R12
SYMATTR Value 10000
SYMBOL res 2144 -144 R0
SYMATTR InstName R13
SYMATTR Value 47000
SYMBOL res 2752 -160 R0
SYMATTR InstName R14
SYMATTR Value 0
SYMBOL res 2752 320 R0
SYMATTR InstName R15
SYMATTR Value 100
SYMBOL zener 2480 432 R180
WINDOW 0 24 64 Left 2
WINDOW 3 24 0 Left 2
SYMATTR InstName D1
SYMATTR Value 1N750
SYMBOL res 2752 16 R0
SYMATTR InstName R6
SYMATTR Value 0
SYMBOL res 2752 208 R0
SYMATTR InstName R7
SYMATTR Value 10000
SYMBOL Contrib\\Toshiba\\bjt\\TTD1409B 1920 -1088 R270
SYMATTR InstName U3
SYMBOL res 1776 -1168 R0
SYMATTR InstName R8
SYMATTR Value 10000
SYMBOL res 1952 -768 R0
SYMATTR InstName R9
SYMATTR Value 0
SYMBOL res 1824 -848 R90
WINDOW 0 0 56 VBottom 2
WINDOW 3 32 56 VTop 2
SYMATTR InstName R10
SYMATTR Value 10
SYMBOL res 2416 -1056 R180
WINDOW 0 36 76 Left 2
WINDOW 3 36 40 Left 2
SYMATTR InstName R16
SYMATTR Value 10k
SYMBOL res 2416 -656 R180
WINDOW 0 36 76 Left 2
WINDOW 3 36 40 Left 2
SYMATTR InstName R17
SYMATTR Value 10k
SYMBOL res 1248 -864 R90
WINDOW 0 0 56 VBottom 2
WINDOW 3 32 56 VTop 2
SYMATTR InstName R18
SYMATTR Value 10
SYMBOL voltage 1360 -1056 R0
WINDOW 123 0 0 Left 0
WINDOW 39 0 0 Left 0
SYMATTR InstName V2
SYMATTR Value 15
SYMBOL voltage 1008 -832 R0
WINDOW 123 0 0 Left 0
WINDOW 39 0 0 Left 0
SYMATTR InstName V3
SYMATTR Value SINE(5 5 1)
SYMBOL voltage 1312 -592 R0
WINDOW 123 0 0 Left 0
WINDOW 39 0 0 Left 0
SYMATTR InstName V4
SYMATTR Value 15
SYMBOL res 1248 -1088 R0
SYMATTR InstName R19
SYMATTR Value 1k
SYMBOL res 1184 -608 R0
SYMATTR InstName R20
SYMATTR Value 1k
SYMBOL OpAmps\\UniversalOpAmp 1472 -832 R0
SYMATTR InstName U5
SYMBOL res 2896 -992 R0
SYMATTR InstName R21
SYMATTR Value 1000
SYMBOL res 1840 -816 R0
SYMATTR InstName R22
SYMATTR Value 4700
SYMBOL cap 2720 -992 R0
SYMATTR InstName C2
SYMATTR Value 1µf
SYMBOL npn 1904 -880 R0
SYMATTR InstName Q1
SYMATTR Value MPSA42/INF
TEXT 8 664 Left 2 !.tran 0 10s 0 10ms startup
