Version 4
SHEET 1 3024 680
WIRE 1792 -1152 720 -1152
WIRE 1920 -1152 1792 -1152
WIRE 2144 -1152 2016 -1152
WIRE 2240 -1152 2144 -1152
WIRE 2400 -1152 2240 -1152
WIRE 2512 -1152 2400 -1152
WIRE 2736 -1152 2512 -1152
WIRE 2912 -1152 2736 -1152
WIRE 2512 -1120 2512 -1152
WIRE 1360 -1104 1264 -1104
WIRE 1472 -1104 1360 -1104
WIRE 2144 -1088 2096 -1088
WIRE 720 -1072 720 -1152
WIRE 1264 -1072 1264 -1104
WIRE 1360 -1040 1360 -1104
WIRE 1968 -1040 1968 -1088
WIRE 2064 -1040 1968 -1040
WIRE 2064 -1024 2064 -1040
WIRE 2096 -1024 2096 -1088
WIRE 2096 -1024 2064 -1024
WIRE 1968 -1008 1968 -1040
WIRE 2736 -992 2736 -1152
WIRE 2912 -976 2912 -1152
WIRE 1264 -960 1264 -992
WIRE 1360 -960 1264 -960
WIRE 2400 -944 2400 -1072
WIRE 2512 -944 2512 -1056
WIRE 2512 -944 2400 -944
WIRE 1792 -928 1792 -1072
WIRE 1968 -928 1968 -944
WIRE 1968 -928 1792 -928
WIRE 1360 -912 1360 -960
WIRE 1600 -912 1408 -912
WIRE 1968 -880 1968 -928
WIRE 1472 -864 1472 -1104
WIRE 1152 -848 1008 -848
WIRE 1296 -848 1232 -848
WIRE 1408 -848 1408 -912
WIRE 1408 -848 1296 -848
WIRE 1440 -848 1408 -848
WIRE 1600 -832 1600 -848
WIRE 1600 -832 1504 -832
WIRE 1728 -832 1600 -832
WIRE 1856 -832 1808 -832
WIRE 1904 -832 1856 -832
WIRE 1008 -816 1008 -848
WIRE 1440 -816 1376 -816
WIRE 2400 -816 2400 -944
WIRE 2400 -816 2240 -816
WIRE 1856 -800 1856 -832
WIRE 1472 -768 1472 -800
WIRE 1552 -768 1472 -768
WIRE 2400 -752 2400 -816
WIRE 1552 -688 1472 -688
WIRE 720 -672 720 -992
WIRE 1008 -672 1008 -736
WIRE 1856 -672 1856 -720
WIRE 1968 -672 1968 -784
WIRE 2736 -672 2736 -928
WIRE 1552 -656 1552 -688
WIRE 2912 -640 2912 -896
WIRE 1376 -624 1376 -816
WIRE 2240 -624 2240 -816
WIRE 2240 -624 1376 -624
FLAG 832 -608 0
FLAG 1360 -912 0
FLAG 2240 -1152 vop
FLAG 1296 -848 vcontrol
FLAG 720 -672 0
FLAG 1008 -672 0
FLAG 1856 -672 0
FLAG 1968 -672 0
FLAG 2912 -640 0
FLAG 2736 -672 0
FLAG 2400 -672 0
FLAG 1552 -656 0
SYMBOL voltage 720 -1088 R0
WINDOW 123 0 0 Left 0
WINDOW 39 24 124 Left 2
SYMATTR SpiceLine Rser=10
SYMATTR InstName V1
SYMATTR Value 200
SYMBOL res 1776 -1168 R0
SYMATTR InstName R8
SYMATTR Value 22k
SYMBOL res 1824 -848 R90
WINDOW 0 0 56 VBottom 2
WINDOW 3 32 56 VTop 2
SYMATTR InstName R10
SYMATTR Value 1000
SYMBOL res 2416 -1056 R180
WINDOW 0 36 76 Left 2
WINDOW 3 36 40 Left 2
SYMATTR InstName R16
SYMATTR Value 190k
SYMBOL res 2416 -656 R180
WINDOW 0 36 76 Left 2
WINDOW 3 36 40 Left 2
SYMATTR InstName R17
SYMATTR Value 10k
SYMBOL res 1248 -864 R90
WINDOW 0 0 56 VBottom 2
WINDOW 3 32 56 VTop 2
SYMATTR InstName R18
SYMATTR Value 1000
SYMBOL voltage 1360 -1056 R0
WINDOW 123 0 0 Left 0
WINDOW 39 0 0 Left 0
SYMATTR InstName V2
SYMATTR Value 15
SYMBOL voltage 1008 -832 R0
WINDOW 123 0 0 Left 0
WINDOW 39 0 0 Left 0
SYMATTR InstName V3
SYMATTR Value SINE(5 5 1)
SYMBOL voltage 1472 -672 R180
WINDOW 123 0 0 Left 0
WINDOW 39 0 0 Left 0
SYMATTR InstName V4
SYMATTR Value 15
SYMBOL res 1248 -1088 R0
SYMATTR InstName R19
SYMATTR Value 1k
SYMBOL res 1536 -784 R0
SYMATTR InstName R20
SYMATTR Value 1k
SYMBOL res 2896 -992 R0
SYMATTR InstName R21
SYMATTR Value 10k
SYMBOL cap 2720 -992 R0
SYMATTR InstName C2
SYMATTR Value 10µf
SYMBOL npn 1904 -880 R0
SYMATTR InstName Q1
SYMATTR Value BSP19
SYMBOL Contrib\\Toshiba\\bjt\\TTD1409B 1920 -1088 R270
SYMATTR InstName U1
SYMBOL cap 2496 -1120 R0
SYMATTR InstName C1
SYMATTR Value 1nf
SYMBOL OpAmps\\AD823 1472 -896 R0
SYMATTR InstName U2
SYMBOL cap 1584 -912 R0
SYMATTR InstName C3
SYMATTR Value 1nf
SYMBOL diode 2128 -1152 R0
SYMATTR InstName D1
SYMATTR Value 1N4007
SYMBOL res 1952 -1024 R0
SYMATTR InstName R1
SYMATTR Value 1k
TEXT 800 -1032 Left 2 !.tran 0 10s 0 10ms uic
