Version 4
SHEET 1 3024 680
WIRE 2464 -1424 928 -1424
WIRE 1920 -1152 720 -1152
WIRE 2240 -1152 2016 -1152
WIRE 2464 -1152 2464 -1424
WIRE 2464 -1152 2240 -1152
WIRE 2736 -1152 2464 -1152
WIRE 2912 -1152 2736 -1152
WIRE 2464 -1136 2464 -1152
WIRE 928 -1088 928 -1424
WIRE 1072 -1088 928 -1088
WIRE 1280 -1088 1152 -1088
WIRE 1472 -1088 1280 -1088
WIRE 720 -1072 720 -1152
WIRE 1472 -1072 1472 -1088
WIRE 1696 -1072 1472 -1072
WIRE 1856 -1072 1696 -1072
WIRE 1856 -1008 1856 -1072
WIRE 1968 -1008 1968 -1088
WIRE 1280 -992 1280 -1088
WIRE 2736 -992 2736 -1152
WIRE 928 -976 928 -1088
WIRE 1008 -976 928 -976
WIRE 2912 -976 2912 -1152
WIRE 1520 -944 1440 -944
WIRE 1600 -944 1584 -944
WIRE 1856 -896 1856 -928
WIRE 1968 -896 1968 -928
WIRE 1968 -896 1856 -896
WIRE 1968 -880 1968 -896
WIRE 1472 -864 1472 -1072
WIRE 928 -848 928 -976
WIRE 1120 -848 928 -848
WIRE 1360 -848 1360 -944
WIRE 1360 -848 1200 -848
WIRE 1440 -848 1360 -848
WIRE 1600 -832 1600 -944
WIRE 1600 -832 1504 -832
WIRE 1616 -832 1600 -832
WIRE 1696 -832 1696 -992
WIRE 1696 -832 1680 -832
WIRE 1728 -832 1696 -832
WIRE 1904 -832 1808 -832
WIRE 1440 -816 1376 -816
WIRE 928 -768 928 -848
WIRE 1120 -768 928 -768
WIRE 1376 -768 1376 -816
WIRE 1376 -768 1184 -768
WIRE 1280 -688 1280 -912
WIRE 1376 -688 1280 -688
WIRE 928 -656 928 -768
WIRE 1072 -656 928 -656
WIRE 1472 -656 1472 -800
WIRE 1472 -656 1152 -656
WIRE 1968 -656 1968 -784
WIRE 1968 -656 1472 -656
WIRE 1280 -576 1280 -688
WIRE 1456 -576 1280 -576
WIRE 1456 -528 1456 -576
WIRE 1280 -512 1280 -576
WIRE 2736 -512 2736 -928
WIRE 2912 -512 2912 -896
WIRE 2912 -512 2736 -512
WIRE 720 -368 720 -992
WIRE 1280 -368 720 -368
WIRE 1456 -368 1456 -448
WIRE 1456 -368 1280 -368
WIRE 1936 -368 1456 -368
WIRE 2736 -368 2736 -512
WIRE 2736 -368 1936 -368
WIRE 1936 -320 1936 -368
FLAG 2240 -1152 vop
FLAG 1936 -320 0
SYMBOL voltage 720 -1088 R0
WINDOW 123 0 0 Left 0
WINDOW 39 24 124 Left 2
SYMATTR SpiceLine Rser=10
SYMATTR InstName V1
SYMATTR Value 200
SYMBOL res 1680 -1088 R0
SYMATTR InstName r88
SYMATTR Value 5k
SYMBOL res 1824 -848 R90
WINDOW 0 0 56 VBottom 2
WINDOW 3 32 56 VTop 2
SYMATTR InstName r100
SYMATTR Value 1k
SYMBOL res 1264 -464 R0
SYMATTR InstName r10
SYMATTR Value 75
SYMBOL voltage 1168 -1088 R90
WINDOW 123 0 0 Left 0
WINDOW 39 0 0 Left 0
SYMATTR InstName V2
SYMATTR Value 12v
SYMBOL voltage 1056 -656 R270
WINDOW 123 0 0 Left 0
WINDOW 39 0 0 Left 0
SYMATTR InstName V4
SYMATTR Value 12v
SYMBOL res 2896 -992 R0
SYMATTR InstName R21
SYMATTR Value 1k
SYMBOL cap 2720 -992 R0
SYMATTR InstName C2
SYMATTR Value 10µf
SYMBOL Contrib\\Toshiba\\bjt\\TTD1409B 1920 -1088 R270
SYMATTR InstName U1
SYMBOL cap 1264 -512 R0
SYMATTR InstName c10
SYMATTR Value 100nf
SYMBOL OpAmps\\AD823 1472 -896 R0
SYMATTR InstName U2
SYMBOL cap 1584 -960 R90
WINDOW 0 0 32 VBottom 2
WINDOW 3 32 32 VTop 2
SYMATTR InstName C3
SYMATTR Value 1nf
SYMBOL res 1952 -1024 R0
SYMATTR InstName R1
SYMATTR Value 1k
SYMBOL pnp 1904 -784 M180
SYMATTR InstName Q2
SYMATTR Value 2N3645
SYMBOL res 1872 -912 R180
WINDOW 0 36 76 Left 2
WINDOW 3 36 40 Left 2
SYMATTR InstName R2
SYMATTR Value 1k2
SYMBOL res 1456 -960 R90
WINDOW 0 0 56 VBottom 2
WINDOW 3 32 56 VTop 2
SYMATTR InstName R3
SYMATTR Value 5k
SYMBOL res 1216 -864 R90
WINDOW 0 0 56 VBottom 2
WINDOW 3 32 56 VTop 2
SYMATTR InstName r8
SYMATTR Value 5k
SYMBOL diode 1680 -848 R90
WINDOW 0 0 32 VBottom 2
WINDOW 3 32 32 VTop 2
SYMATTR InstName D1
SYMATTR Value 1N4148
SYMBOL diode 1120 -752 R270
WINDOW 0 32 32 VTop 2
WINDOW 3 0 32 VBottom 2
SYMATTR InstName D2
SYMATTR Value 1N4148
SYMBOL res 1296 -896 R180
WINDOW 0 36 76 Left 2
WINDOW 3 36 40 Left 2
SYMATTR InstName r15
SYMATTR Value 13k
SYMBOL res 1392 -672 R180
WINDOW 0 36 76 Left 2
WINDOW 3 36 40 Left 2
SYMATTR InstName r13
SYMATTR Value 5k
SYMBOL res 1440 -544 R0
SYMATTR InstName r37
SYMATTR Value {R}
TEXT 800 -1032 Left 2 !.tran 0 10s 0 10ms uic
TEXT 1424 -200 Left 2 !.step param R 1 250000 25000\n;.op
